examples/PvDemo/nesta_case189_edin_1.m
%%%%%%%%%%%%%%%%%%%%%%%%%%%%%%%%%%%%%%%%%%%%%%%%%%%%%%%%%%%%%%%%%%%%%%%%%%%
%%%%                                                                  %%%%%
%%%%      NICTA Energy System Test Case Archive (NESTA) - v0.1.5      %%%%%
%%%%              Optimal Power Flow - Typical Operation              %%%%%
%%%%                       30 - October - 2014                        %%%%%
%%%%                                                                  %%%%%
%%%%%%%%%%%%%%%%%%%%%%%%%%%%%%%%%%%%%%%%%%%%%%%%%%%%%%%%%%%%%%%%%%%%%%%%%%%
%
%   Iceland network
%   Data stats: 189 nodes, 35 generators and 206 branches
%
%   Acknowledgement:
%      Paddy McNab, Durham University (Data received on 21 Jan, 2011)
%      Original file was in PSAT format. It was converted into Matpower format.
%      Please cite University of Edinburgh if you are using this data for your research.
%
%   W. A. Bukhsh, March 2013
%   send your questions and comments to : wbukhsh@gmail.com
%
function mpc = nesta_case189_edin
mpc.version = '2';
mpc.baseMVA = 100.0;

%% area data
%	area	refbus
mpc.areas = [
	1	 1;
];

%% bus data
%	bus_i	type	Pd	Qd	Gs	Bs	area	Vm	Va	baseKV	zone	Vmax	Vmin
mpc.bus = [
	1	 1	 0.0	 0.0	 0.0	 0.0	 1	     1.0500	    -0.0800	 220.0	 1	     1.1000	     0.9000;
	2	 1	 0.59	 0.26	 0.0	 0.0	 1	     0.9900	     0.0600	 13.8	 1	     1.1000	     0.9000;
	3	 1	 3.52	 1.53	 0.0	 0.0	 1	     0.9900	     0.0500	 13.8	 1	     1.1000	     0.9000;
	4	 2	 0.0	 0.0	 0.0	 0.0	 1	     0.9900	    -0.0400	 13.8	 1	     1.1000	     0.9000;
	5	 1	 0.0	 0.0	 0.0	 0.0	 1	     0.9800	     0.0300	 66.0	 1	     1.1000	     0.9000;
	6	 1	 0.0	 0.0	 0.0	 0.0	 1	     0.9800	     0.0300	 66.0	 1	     1.1000	     0.9000;
	7	 1	 0.0	 0.0	 0.0	 0.0	 1	     1.0600	    -0.0600	 220.0	 1	     1.1000	     0.9000;
	8	 1	 0.0	 0.0	 0.0	 0.0	 1	     0.9900	     0.0000	 10.5	 1	     1.1000	     0.9000;
	9	 1	 0.0	 0.0	 0.0	 0.0	 1	     0.9900	     0.0000	 10.5	 1	     1.1000	     0.9000;
	10	 1	 0.0	 0.0	 0.0	 0.0	 1	     0.9900	     0.0000	 10.5	 1	     1.1000	     0.9000;
	11	 1	 0.0	 0.0	 0.0	 0.0	 1	     0.9900	    -0.0700	 132.0	 1	     1.1000	     0.9000;
	12	 1	 0.0	 0.0	 0.0	 0.0	 1	     1.0600	    -0.0600	 220.0	 1	     1.1000	     0.9000;
	13	 1	 0.0	 0.0	 0.0	 0.0	 1	     0.9900	     0.0500	 13.8	 1	     1.1000	     0.9000;
	14	 1	 0.0	 0.0	 0.0	 0.0	 1	     0.9900	     0.0500	 13.8	 1	     1.1000	     0.9000;
	15	 1	 0.0	 0.0	 0.0	 0.0	 1	     1.0600	    -0.0600	 220.0	 1	     1.1000	     0.9000;
	16	 1	 0.0	 0.0	 0.0	 0.0	 1	     0.9900	     0.0600	 11.0	 1	     1.1000	     0.9000;
	17	 1	 0.0	 0.0	 0.0	 0.0	 1	     1.0500	    -0.0900	 220.0	 1	     1.1000	     0.9000;
	18	 2	 0.0	 0.0	 0.0	 0.0	 1	     1.0600	     0.0000	 11.0	 1	     1.1000	     0.9000;
	19	 1	 0.0	 0.0	 0.0	 0.0	 1	     1.0600	     0.0000	 11.0	 1	     1.1000	     0.9000;
	20	 1	 0.0	 0.0	 0.0	 0.0	 1	     1.0500	    -0.0900	 220.0	 1	     1.1000	     0.9000;
	21	 1	 0.0	 0.0	 0.0	 0.0	 1	     1.0400	    -0.0900	 220.0	 1	     1.1000	     0.9000;
	22	 1	 7.33	 7.1	 0.0	 0.0	 1	     0.9600	    -0.0100	 66.0	 1	     1.1000	     0.9000;
	23	 1	 2.84	 1.89	 0.0	 0.0	 1	     0.9700	     0.0000	 66.0	 1	     1.1000	     0.9000;
	24	 1	 5.61	 4.73	 0.0	 0.0	 1	     0.9600	    -0.0200	 66.0	 1	     1.1000	     0.9000;
	25	 1	 0.0	 0.0	 0.0	 0.0	 1	     1.0300	    -0.1200	 220.0	 1	     1.1000	     0.9000;
	26	 1	 0.0	 0.0	 0.0	 0.0	 1	     1.0300	    -0.0800	 132.0	 1	     1.1000	     0.9000;
	27	 1	 0.0	 0.0	 0.0	 0.0	 1	     1.0200	    -0.0200	 10.5	 1	     1.1000	     0.9000;
	28	 1	 0.0	 0.0	 0.0	 0.0	 1	     1.0200	    -0.0200	 10.5	 1	     1.1000	     0.9000;
	29	 1	 0.0	 0.0	 0.0	 0.0	 1	     1.0200	    -0.0300	 10.5	 1	     1.1000	     0.9000;
	30	 1	 0.0	 0.0	 0.0	 0.0	 1	     1.0100	    -0.0400	 66.0	 1	     1.1000	     0.9000;
	31	 1	 0.0	 0.0	 0.0	 0.0	 1	     1.0200	    -0.0200	 66.0	 1	     1.1000	     0.9000;
	32	 2	 0.0	 0.0	 0.0	 0.0	 1	     1.0300	     0.0400	 6.6	 1	     1.1000	     0.9000;
	33	 2	 0.0	 0.0	 0.0	 0.0	 1	     1.0300	     0.0400	 6.6	 1	     1.1000	     0.9000;
	34	 1	 0.0	 0.0	 0.0	 0.0	 1	     1.0200	    -0.0200	 6.6	 1	     1.1000	     0.9000;
	35	 1	 0.0	 0.0	 0.0	 0.0	 1	     1.0100	    -0.0400	 66.0	 1	     1.1000	     0.9000;
	36	 2	 0.0	 0.0	 0.0	 0.0	 1	     1.0200	     0.0100	 6.6	 1	     1.1000	     0.9000;
	37	 1	 2.83	 1.23	 0.0	 0.0	 1	     0.9900	    -0.0800	 11.0	 1	     1.1000	     0.9000;
	38	 1	 5.85	 3.53	 0.0	 0.0	 1	     1.0100	    -0.0400	 66.0	 1	     1.1000	     0.9000;
	39	 1	 0.0	 0.0	 0.0	 0.0	 1	     1.0200	    -0.1300	 220.0	 1	     1.1000	     0.9000;
	40	 1	 0.0	 0.0	 0.0	 0.0	 1	     1.0200	    -0.1100	 132.0	 1	     1.1000	     0.9000;
	41	 1	 0.0	 0.0	 0.0	 0.0	 1	     1.0200	    -0.1300	 220.0	 1	     1.1000	     0.9000;
	42	 2	 0.0	 0.0	 0.0	 0.0	 1	     1.0500	    -0.0300	 11.0	 1	     1.1000	     0.9000;
	43	 2	 0.0	 0.0	 0.0	 0.0	 1	     1.0500	    -0.0300	 11.0	 1	     1.1000	     0.9000;
	44	 1	 8.26	 5.12	 0.0	 0.0	 1	     0.9700	    -0.0400	 66.0	 1	     1.1000	     0.9000;
	45	 1	 4.01	 2.73	 0.0	 0.0	 1	     0.9200	    -0.0700	 33.0	 1	     1.1000	     0.9000;
	46	 1	 0.0	 0.0	 0.0	 0.0	 1	     1.0300	    -0.1100	 220.0	 1	     1.1000	     0.9000;
	47	 1	 0.0	 0.0	 0.0	 0.0	 1	     1.0200	    -0.1100	 132.0	 1	     1.1000	     0.9000;
	48	 1	 0.0	 0.0	 0.0	 0.0	 1	     1.0200	    -0.1300	 220.0	 1	     1.1000	     0.9000;
	49	 1	 7.55	 2.5	 0.0	 0.0	 1	     1.0300	    -0.1200	 132.0	 1	     1.1000	     0.9000;
	50	 2	 0.0	 0.0	 0.0	 0.0	 1	     1.0500	    -0.0700	 11.0	 1	     1.1000	     0.9000;
	51	 2	 0.0	 0.0	 0.0	 0.0	 1	     1.0500	    -0.0700	 11.0	 1	     1.1000	     0.9000;
	52	 2	 0.0	 0.0	 0.0	 0.0	 1	     1.0500	    -0.0700	 11.0	 1	     1.1000	     0.9000;
	53	 2	 0.0	 0.0	 0.0	 0.0	 1	     1.0500	    -0.0700	 11.0	 1	     1.1000	     0.9000;
	54	 1	 6.23	 2.05	 0.0	 0.0	 1	     1.0100	    -0.0400	 66.0	 1	     1.1000	     0.9000;
	55	 1	 0.0	 0.0	 0.0	 0.0	 1	     1.0300	    -0.1200	 132.0	 1	     1.1000	     0.9000;
	56	 1	 0.0	 0.0	 0.0	 0.0	 1	     1.0300	    -0.1300	 132.0	 1	     1.1000	     0.9000;
	57	 1	 0.0	 0.0	 0.0	 0.0	 1	     1.0200	    -0.1400	 220.0	 1	     1.1000	     0.9000;
	58	 1	 0.0	 0.0	 0.0	 0.3	 1	     1.0200	    -0.1300	 132.0	 1	     1.1000	     0.9000;
	59	 1	 0.0	 0.0	 0.0	 0.0	 1	     1.0200	    -0.1300	 132.0	 1	     1.1000	     0.9000;
	60	 1	 200.86	 68.47	 0.0	 0.0	 1	     0.9800	    -0.2700	 21.0	 1	     1.1000	     0.9000;
	61	 1	 0.0	 0.0	 0.0	 0.0	 1	     1.0100	    -0.1500	 220.0	 1	     1.1000	     0.9000;
	62	 1	 0.0	 0.0	 0.0	 0.0	 1	     1.0100	    -0.1500	 220.0	 1	     1.1000	     0.9000;
	63	 1	 110.14	 36.81	 0.0	 0.0	 1	     1.0000	    -0.2300	 33.0	 1	     1.1000	     0.9000;
	64	 1	 0.0	 0.0	 0.0	 0.0	 1	     1.0200	    -0.1400	 220.0	 1	     1.1000	     0.9000;
	65	 1	 50.0	 12.0	 0.0	 0.0	 1	     1.0300	    -0.1400	 33.0	 1	     1.1000	     0.9000;
	66	 1	 0.0	 0.0	 0.0	 0.0	 1	     1.0200	    -0.1400	 220.0	 1	     1.1000	     0.9000;
	67	 1	 80.0	 20.0	 0.0	 0.0	 1	     1.0300	    -0.1400	 33.0	 1	     1.1000	     0.9000;
	68	 1	 56.0	 14.0	 0.0	 0.0	 1	     1.0300	    -0.1400	 33.0	 1	     1.1000	     0.9000;
	69	 1	 0.0	 0.0	 0.0	 0.0	 1	     1.0200	    -0.1300	 132.0	 1	     1.1000	     0.9000;
	70	 1	 34.04	 20.9	 0.0	 0.0	 1	     1.0000	    -0.1700	 33.0	 1	     1.1000	     0.9000;
	71	 1	 0.0	 0.0	 0.0	 0.08	 1	     1.0200	    -0.1400	 220.0	 1	     1.1000	     0.9000;
	72	 1	 0.0	 0.0	 0.0	 0.43	 1	     1.0300	    -0.1200	 132.0	 1	     1.1000	     0.9000;
	73	 1	 0.0	 0.0	 0.0	 0.0	 1	     1.0300	    -0.1200	 132.0	 1	     1.1000	     0.9000;
	74	 1	 17.33	 9.28	 0.0	 0.0	 1	     1.0000	    -0.2000	 11.0	 1	     1.1000	     0.9000;
	75	 1	 0.0	 0.0	 0.0	 0.0	 1	     1.0200	    -0.1300	 220.0	 1	     1.1000	     0.9000;
	76	 1	 0.0	 0.0	 0.0	 0.75	 1	     1.0100	    -0.2200	 220.0	 1	     1.1000	     0.9000;
	77	 1	 0.55	 0.24	 0.0	 0.0	 1	     0.9900	    -0.2100	 132.0	 1	     1.1000	     0.9000;
	78	 1	 7.76	 3.38	 0.0	 0.0	 1	     1.0100	    -0.2400	 66.0	 1	     1.1000	     0.9000;
	79	 1	 0.0	 0.0	 0.0	 0.0	 1	     1.0100	    -0.2400	 11.0	 1	     1.1000	     0.9000;
	80	 1	 125.01	 31.3	 0.0	 0.0	 1	     1.0000	    -0.2200	 220.0	 1	     1.1000	     0.9000;
	81	 1	 379.0	 92.49	 0.0	 0.0	 1	     1.0000	    -0.2300	 220.0	 1	     1.1000	     0.9000;
	82	 1	 0.0	 0.0	 0.0	 0.0	 1	     1.0200	    -0.1400	 132.0	 1	     1.1000	     0.9000;
	83	 1	 25.98	 18.84	 0.0	 0.0	 1	     1.0600	    -0.1500	 11.0	 1	     1.1000	     0.9000;
	84	 1	 0.0	 0.0	 0.0	 0.0	 1	     1.0200	    -0.1400	 132.0	 1	     1.1000	     0.9000;
	85	 1	 15.83	 10.92	 0.0	 0.0	 1	     0.9900	    -0.1700	 11.0	 1	     1.1000	     0.9000;
	86	 1	 0.0	 0.0	 0.0	 0.0	 1	     1.0200	    -0.1400	 132.0	 1	     1.1000	     0.9000;
	87	 1	 8.34	 8.96	 0.0	 0.0	 1	     1.0000	    -0.1400	 11.0	 1	     1.1000	     0.9000;
	88	 1	 0.0	 0.0	 0.0	 0.0	 1	     1.0300	    -0.1200	 132.0	 1	     1.1000	     0.9000;
	89	 1	 15.47	 8.04	 0.0	 0.0	 1	     0.9800	    -0.1600	 11.0	 1	     1.1000	     0.9000;
	90	 1	 0.0	 0.0	 0.0	 0.0	 1	     1.0300	    -0.1200	 132.0	 1	     1.1000	     0.9000;
	91	 1	 8.26	 4.25	 0.0	 0.0	 1	     1.0200	    -0.1400	 11.0	 1	     1.1000	     0.9000;
	92	 1	 0.0	 0.0	 0.0	 0.0	 1	     1.0300	    -0.1200	 132.0	 1	     1.1000	     0.9000;
	93	 1	 15.11	 10.0	 0.0	 0.0	 1	     1.0300	     0.0200	 132.0	 1	     1.1000	     0.9000;
	94	 1	 0.0	 0.0	 0.0	 0.0	 1	     1.0300	     0.0600	 132.0	 1	     1.1000	     0.9000;
	95	 1	 0.0	 0.0	 0.0	 0.0	 1	     1.0300	     0.0600	 11.0	 1	     1.1000	     0.9000;
	96	 1	 0.0	 0.0	 0.0	 0.0	 1	     1.0300	     0.0500	 132.0	 1	     1.1000	     0.9000;
	97	 1	 0.0	 0.0	 0.0	 0.0	 1	     1.0300	     0.0900	 132.0	 1	     1.1000	     0.9000;
	98	 2	 0.0	 0.0	 0.0	 0.0	 1	     1.0300	     0.1700	 11.0	 1	     1.1000	     0.9000;
	99	 2	 0.0	 0.0	 0.0	 0.0	 1	     1.0300	     0.1700	 11.0	 1	     1.1000	     0.9000;
	100	 1	 0.0	 0.0	 0.0	 0.0	 1	     1.0300	     0.0900	 11.0	 1	     1.1000	     0.9000;
	101	 1	 0.0	 0.0	 0.0	 0.0	 1	     1.0300	     0.0900	 11.0	 1	     1.1000	     0.9000;
	102	 2	 3.78	 1.25	 0.0	 0.0	 1	     1.0500	     0.1700	 11.0	 1	     1.1000	     0.9000;
	103	 1	 0.0	 0.0	 0.0	 0.0	 1	     0.9800	    -0.2000	 132.0	 1	     1.1000	     0.9000;
	104	 2	 22.13	 4.05	 0.0	 0.0	 1	     1.0000	    -0.2900	 66.0	 1	     1.1000	     0.9000;
	105	 1	 5.35	 2.33	 0.0	 0.0	 1	     0.9800	    -0.3200	 19.0	 1	     1.1000	     0.9000;
	106	 1	 0.0	 0.0	 0.0	 0.0	 1	     0.9800	    -0.3200	 0.41	 1	     1.1000	     0.9000;
	107	 1	 0.0	 0.0	 0.0	 0.0	 1	     1.0000	    -0.2900	 11.0	 1	     1.1000	     0.9000;
	108	 1	 0.0	 0.0	 0.0	 0.0	 1	     0.9800	    -0.3200	 11.0	 1	     1.1000	     0.9000;
	109	 1	 0.0	 0.0	 0.0	 0.0	 1	     0.9900	    -0.1500	 132.0	 1	     1.1000	     0.9000;
	110	 1	 1.8	 0.2	 0.0	 0.0	 1	     0.9900	    -0.1600	 19.0	 1	     1.1000	     0.9000;
	111	 1	 0.0	 0.0	 0.0	 0.0	 1	     0.9900	    -0.1600	 0.41	 1	     1.1000	     0.9000;
	112	 1	 0.0	 0.0	 0.0	 0.0	 1	     0.9900	    -0.1600	 11.0	 1	     1.1000	     0.9000;
	113	 1	 0.0	 0.0	 0.0	 0.0	 1	     0.9900	    -0.1700	 132.0	 1	     1.1000	     0.9000;
	114	 1	 3.0	 -1.0	 0.0	 0.0	 1	     1.0700	    -0.2000	 33.0	 1	     1.1000	     0.9000;
	115	 1	 0.0	 0.0	 0.0	 0.0	 1	     0.9800	    -0.2100	 132.0	 1	     1.1000	     0.9000;
	116	 1	 20.0	 2.11	 0.0	 0.0	 1	     0.9900	    -0.2800	 66.0	 1	     1.1000	     0.9000;
	117	 1	 4.0	 1.05	 0.0	 0.0	 1	     1.0300	    -0.2400	 6.3	 1	     1.1000	     0.9000;
	118	 1	 0.0	 0.0	 0.0	 0.0	 1	     1.0100	    -0.2600	 33.0	 1	     1.1000	     0.9000;
	119	 1	 0.0	 0.0	 0.0	 0.0	 1	     0.9900	    -0.1300	 132.0	 1	     1.1000	     0.9000;
	120	 1	 2.57	 1.12	 0.0	 0.0	 1	     1.0000	    -0.1500	 19.0	 1	     1.1000	     0.9000;
	121	 1	 0.0	 0.0	 0.0	 0.0	 1	     1.0000	    -0.1500	 0.41	 1	     1.1000	     0.9000;
	122	 1	 0.0	 0.0	 0.0	 0.0	 1	     1.0000	    -0.1500	 11.0	 1	     1.1000	     0.9000;
	123	 1	 0.0	 0.0	 0.0	 0.0	 1	     1.0100	    -0.0100	 132.0	 1	     1.1000	     0.9000;
	124	 1	 5.0	 0.92	 0.0	 0.0	 1	     1.0300	    -0.0700	 33.0	 1	     1.1000	     0.9000;
	125	 1	 0.0	 0.0	 0.0	 0.0	 1	     1.0200	     0.0400	 132.0	 1	     1.1000	     0.9000;
	126	 1	 0.0	 0.0	 0.0	 0.0	 1	     1.0200	     0.1000	 11.0	 1	     1.1000	     0.9000;
	127	 1	 0.0	 0.0	 0.0	 0.0	 1	     1.0200	     0.1000	 11.0	 1	     1.1000	     0.9000;
	128	 1	 0.0	 0.0	 0.0	 0.0	 1	     1.0200	     0.1000	 11.0	 1	     1.1000	     0.9000;
	129	 1	 0.0	 0.0	 0.0	 0.0	 1	     1.0200	     0.1000	 11.0	 1	     1.1000	     0.9000;
	130	 1	 0.0	 0.0	 0.0	 0.0	 1	     1.0200	     0.0400	 132.0	 1	     1.1000	     0.9000;
	131	 1	 9.0	 1.47	 0.0	 0.0	 1	     1.0400	    -0.0300	 66.0	 1	     1.1000	     0.9000;
	132	 1	 0.0	 0.0	 0.0	 0.0	 1	     1.0200	     0.0500	 132.0	 1	     1.1000	     0.9000;
	133	 1	 13.0	 1.0	 0.0	 0.0	 1	     1.0300	     0.0400	 66.0	 1	     1.1000	     0.9000;
	134	 1	 4.08	 1.78	 0.0	 0.0	 1	     1.0000	     0.0000	 11.0	 1	     1.1000	     0.9000;
	135	 1	 0.0	 0.0	 0.0	 0.0	 1	     1.0000	     0.0000	 0.41	 1	     1.1000	     0.9000;
	136	 1	 0.0	 0.0	 0.0	 0.0	 1	     1.0000	     0.0000	 11.0	 1	     1.1000	     0.9000;
	137	 1	 0.0	 0.0	 0.0	 0.0	 1	     1.0200	     0.0800	 132.0	 1	     1.1000	     0.9000;
	138	 2	 0.0	 0.0	 0.0	 0.0	 1	     1.0000	     0.1900	 11.0	 1	     1.1000	     0.9000;
	139	 2	 2.27	 0.99	 0.0	 0.0	 1	     1.0000	     0.1900	 11.0	 1	     1.1000	     0.9000;
	140	 1	 0.0	 0.0	 0.0	 0.0	 1	     1.0000	     0.1900	 0.41	 1	     1.1000	     0.9000;
	141	 1	 0.0	 0.0	 0.0	 0.0	 1	     1.0200	     0.2500	 11.0	 1	     1.1000	     0.9000;
	142	 2	 0.0	 0.0	 0.0	 0.0	 1	     1.0200	     0.2500	 11.0	 1	     1.1000	     0.9000;
	143	 1	 8.08	 0.5	 0.0	 0.0	 1	     1.0600	     0.1100	 66.0	 1	     1.1000	     0.9000;
	144	 2	 0.0	 0.0	 0.0	 0.0	 1	     1.0600	     0.1800	 11.0	 1	     1.1000	     0.9000;
	145	 1	 0.0	 0.0	 0.0	 0.0	 1	     1.0300	     0.1100	 33.0	 1	     1.1000	     0.9000;
	146	 1	 0.0	 0.0	 0.0	 0.0	 1	     1.0600	     0.1100	 6.6	 1	     1.1000	     0.9000;
	147	 1	 0.0	 0.0	 0.0	 0.0	 1	     1.0600	     0.1100	 11.0	 1	     1.1000	     0.9000;
	148	 1	 0.0	 0.0	 0.0	 0.0	 1	     1.0600	     0.1400	 0.38	 1	     1.1000	     0.9000;
	149	 1	 0.0	 0.0	 0.0	 0.0	 1	     1.0600	     0.1100	 0.22	 1	     1.1000	     0.9000;
	150	 1	 0.0	 0.0	 0.0	 0.0	 1	     1.0600	     0.1100	 0.38	 1	     1.1000	     0.9000;
	151	 1	 0.0	 0.0	 0.0	 0.0	 1	     1.0600	     0.1100	 0.22	 1	     1.1000	     0.9000;
	152	 1	 0.0	 0.0	 0.0	 0.0	 1	     1.0600	     0.1100	 6.6	 1	     1.1000	     0.9000;
	153	 1	 0.0	 0.0	 0.0	 0.0	 1	     1.0600	     0.1100	 6.6	 1	     1.1000	     0.9000;
	154	 1	 0.0	 0.0	 0.0	 0.0	 1	     1.0600	     0.1100	 0.22	 1	     1.1000	     0.9000;
	155	 1	 0.01	 0.01	 0.0	 0.0	 1	     1.0300	    -0.0900	 132.0	 1	     1.1000	     0.9000;
	156	 1	 17.38	 4.4	 0.0	 0.0	 1	     1.0300	    -0.1500	 66.0	 1	     1.1000	     0.9000;
	157	 1	 0.0	 0.0	 0.0	 0.0	 1	     1.0300	    -0.0900	 132.0	 1	     1.1000	     0.9000;
	158	 1	 0.0	 0.0	 0.0	 0.0	 1	     1.0200	    -0.0900	 132.0	 1	     1.1000	     0.9000;
	159	 1	 10.14	 2.7	 0.0	 0.0	 1	     1.0300	    -0.1400	 66.0	 1	     1.1000	     0.9000;
	160	 1	 0.0	 0.0	 0.0	 0.0	 1	     1.0300	    -0.1400	 11.0	 1	     1.1000	     0.9000;
	161	 1	 0.0	 0.0	 0.0	 0.0	 1	     1.0300	    -0.0900	 132.0	 1	     1.1000	     0.9000;
	162	 1	 2.87	 0.4	 0.0	 0.0	 1	     1.0000	    -0.1200	 11.0	 1	     1.1000	     0.9000;
	163	 1	 0.0	 0.0	 0.0	 0.0	 1	     1.0100	    -0.1100	 33.0	 1	     1.1000	     0.9000;
	164	 1	 0.0	 0.0	 0.0	 0.0	 1	     1.0000	    -0.1200	 0.41	 1	     1.1000	     0.9000;
	165	 1	 0.0	 0.0	 0.0	 0.0	 1	     1.0100	    -0.1100	 11.0	 1	     1.1000	     0.9000;
	166	 1	 0.0	 0.0	 0.0	 0.0	 1	     1.0200	    -0.1000	 132.0	 1	     1.1000	     0.9000;
	167	 1	 7.26	 0.4	 0.0	 0.0	 1	     1.0000	    -0.1300	 11.0	 1	     1.1000	     0.9000;
	168	 1	 0.0	 0.0	 0.0	 0.0	 1	     1.0000	    -0.1300	 0.41	 1	     1.1000	     0.9000;
	169	 1	 0.0	 0.0	 0.0	 0.0	 1	     1.0000	    -0.1300	 11.0	 1	     1.1000	     0.9000;
	170	 1	 0.0	 0.0	 0.0	 0.0	 1	     1.0400	    -0.1100	 132.0	 1	     1.1000	     0.9000;
	171	 1	 0.0	 0.0	 0.0	 0.0	 1	     1.0000	    -0.1300	 19.0	 1	     1.1000	     0.9000;
	172	 1	 0.0	 0.0	 0.0	 0.0	 1	     1.0100	    -0.0900	 132.0	 1	     1.1000	     0.9000;
	173	 1	 1.73	 0.2	 0.0	 0.0	 1	     1.0100	    -0.1000	 19.0	 1	     1.1000	     0.9000;
	174	 1	 0.0	 0.0	 0.0	 0.0	 1	     1.0100	    -0.1000	 0.41	 1	     1.1000	     0.9000;
	175	 1	 0.0	 0.0	 0.0	 0.0	 1	     1.0100	    -0.1000	 11.0	 1	     1.1000	     0.9000;
	176	 1	 0.0	 0.0	 0.0	 0.0	 1	     1.0300	    -0.0700	 132.0	 1	     1.1000	     0.9000;
	177	 1	 0.0	 0.0	 0.0	 0.0	 1	     1.0000	    -0.0700	 220.0	 1	     1.1000	     0.9000;
	178	 1	 5.2	 3.0	 0.0	 0.0	 1	     0.9800	    -0.1000	 11.0	 1	     1.1000	     0.9000;
	179	 1	 0.0	 0.0	 0.0	 0.0	 1	     1.0000	    -0.0800	 69.0	 1	     1.1000	     0.9000;
	180	 1	 0.0	 0.0	 0.0	 0.0	 1	     1.0000	    -0.0800	 69.0	 1	     1.1000	     0.9000;
	181	 1	 0.0	 0.0	 0.0	 0.0	 1	     1.0000	    -0.0800	 69.0	 1	     1.1000	     0.9000;
	182	 1	 0.0	 0.0	 0.0	 0.0	 1	     1.0000	    -0.0800	 69.0	 1	     1.1000	     0.9000;
	183	 1	 0.0	 0.0	 0.0	 0.0	 1	     1.0000	    -0.0800	 69.0	 1	     1.1000	     0.9000;
	184	 1	 5.21	 3.0	 0.0	 0.0	 1	     0.9800	    -0.1000	 11.0	 1	     1.1000	     0.9000;
	185	 1	 9.67	 1.6	 0.0	 0.0	 1	     1.0100	    -0.1600	 66.0	 1	     1.1000	     0.9000;
	186	 2	 0.0	 0.0	 0.0	 0.0	 1	     1.0100	    -0.1200	 6.6	 1	     1.1000	     0.9000;
	187	 1	 0.0	 0.0	 0.0	 0.0	 1	     1.0100	    -0.1600	 11.0	 1	     1.1000	     0.9000;
	188	 1	 0.0	 0.0	 0.0	 0.0	 1	     1.0000	    -0.0800	 220.0	 1	     1.1000	     0.9000;
	189	 1	 0.0	 0.0	 0.0	 0.0	 1	     1.0000	    -0.0800	 220.0	 1	     1.1000	     0.9000;
];

%% generator data
%	bus	Pg	Qg	Qmax	Qmin	Vg	mBase	status	Pmax	Pmin	Pc1	Pc2	Qc1min	Qc1max	Qc2min	Qc2max	ramp_agc	ramp_10	ramp_30	ramp_q	apf
mpc.gen = [
	4	 45.0	 0.0	 17.0	 -10.0	 0.99	 53.3	 1	 128	 0.0	 0.0	 0.0	 0.0	 0.0	 0.0	 0.0	 0.0	 0.0	 0.0	 0.0	 0.0; % COW
	18	 60.0	 0.0	 42.0	 -20.0	 1.06	 66.67	 1	 151	 0.0	 0.0	 0.0	 0.0	 0.0	 0.0	 0.0	 0.0	 0.0	 0.0	 0.0	 0.0; % NG
	32	 11.0	 0.0	 6.0	 -5.0	 1.03	 16.5	 1	 11	 0.0	 0.0	 0.0	 0.0	 0.0	 0.0	 0.0	 0.0	 0.0	 0.0	 0.0	 0.0; % COW
	33	 11.0	 0.0	 9.9	 -5.0	 1.03	 16.5	 1	 20	 0.0	 0.0	 0.0	 0.0	 0.0	 0.0	 0.0	 0.0	 0.0	 0.0	 0.0	 0.0; % COW
	36	 14.6	 0.0	 3.3	 -2.0	 1.02	 18.2	 1	 52	 0.0	 0.0	 0.0	 0.0	 0.0	 0.0	 0.0	 0.0	 0.0	 0.0	 0.0	 0.0; % COW
	42	 40.0	 0.0	 21.0	 -20.0	 1.05	 55.0	 1	 42	 0.0	 0.0	 0.0	 0.0	 0.0	 0.0	 0.0	 0.0	 0.0	 0.0	 0.0	 0.0; % NUC
	43	 40.0	 0.0	 22.0	 -20.0	 1.05	 55.0	 1	 166	 0.0	 0.0	 0.0	 0.0	 0.0	 0.0	 0.0	 0.0	 0.0	 0.0	 0.0	 0.0; % COW
	50	 30.0	 0.0	 20.0	 -20.0	 1.05	 40.0	 1	 72	 0.0	 0.0	 0.0	 0.0	 0.0	 0.0	 0.0	 0.0	 0.0	 0.0	 0.0	 0.0; % COW
	51	 30.0	 0.0	 20.0	 -20.0	 1.05	 40.0	 1	 88	 0.0	 0.0	 0.0	 0.0	 0.0	 0.0	 0.0	 0.0	 0.0	 0.0	 0.0	 0.0; % COW
	52	 30.0	 0.0	 20.0	 -20.0	 1.05	 40.0	 1	 112	 0.0	 0.0	 0.0	 0.0	 0.0	 0.0	 0.0	 0.0	 0.0	 0.0	 0.0	 0.0; % COW
	53	 30.0	 0.0	 20.0	 -20.0	 1.05	 40.0	 1	 111	 0.0	 0.0	 0.0	 0.0	 0.0	 0.0	 0.0	 0.0	 0.0	 0.0	 0.0	 0.0; % COW
	98	 50.0	 0.0	 23.0	 -16.0	 1.03	 55.0	 1	 121	 0.0	 0.0	 0.0	 0.0	 0.0	 0.0	 0.0	 0.0	 0.0	 0.0	 0.0	 0.0; % COW
	99	 50.0	 0.0	 23.0	 -16.0	 1.03	 55.0	 1	 65	 0.0	 0.0	 0.0	 0.0	 0.0	 0.0	 0.0	 0.0	 0.0	 0.0	 0.0	 0.0; % COW
	102	 60.0	 0.0	 30.0	 -26.0	 1.05	 67.5	 1	 218	 0.0	 0.0	 0.0	 0.0	 0.0	 0.0	 0.0	 0.0	 0.0	 0.0	 0.0	 0.0; % COW
	104	 4.0	 0.0	 3.3	 -3.3	 1.0	 10.0	 1	 11	 0.0	 0.0	 0.0	 0.0	 0.0	 0.0	 0.0	 0.0	 0.0	 0.0	 0.0	 0.0; % COW
	138	 30.0	 0.0	 18.7	 -16.0	 1.0	 37.5	 1	 58	 0.0	 0.0	 0.0	 0.0	 0.0	 0.0	 0.0	 0.0	 0.0	 0.0	 0.0	 0.0; % COW
	139	 30.0	 0.0	 18.7	 -16.0	 1.0	 37.5	 1	 95	 0.0	 0.0	 0.0	 0.0	 0.0	 0.0	 0.0	 0.0	 0.0	 0.0	 0.0	 0.0; % COW
	142	 3.0	 0.0	 1.3	 0.0	 1.02	 3.5	 1	 7	 0.0	 0.0	 0.0	 0.0	 0.0	 0.0	 0.0	 0.0	 0.0	 0.0	 0.0	 0.0; % COW
	144	 20.0	 0.0	 11.0	 0.0	 1.06	 28.0	 1	 21	 0.0	 0.0	 0.0	 0.0	 0.0	 0.0	 0.0	 0.0	 0.0	 0.0	 0.0	 0.0; % NUC
	186	 6.0	 0.0	 3.0	 0.0	 1.01	 10.0	 1	 6	 0.0	 0.0	 0.0	 0.0	 0.0	 0.0	 0.0	 0.0	 0.0	 0.0	 0.0	 0.0; % NUC
];

%% generator cost data
%	2	startup	shutdown	n	c(n-1)	...	c0
mpc.gencost = [
	2	 0.0	 0.0	 3	   0.000000	   1.082710	   0.000000; % COW
	2	 0.0	 0.0	 3	   0.000000	   1.078768	   0.000000; % NG
	2	 0.0	 0.0	 3	   0.000000	   0.363147	   0.000000; % COW
	2	 0.0	 0.0	 3	   0.000000	   0.994267	   0.000000; % COW
	2	 0.0	 0.0	 3	   0.000000	   0.523605	   0.000000; % COW
	2	 0.0	 0.0	 3	   0.000000	   0.194502	   0.000000; % NUC
	2	 0.0	 0.0	 3	   0.000000	   1.050080	   0.000000; % COW
	2	 0.0	 0.0	 3	   0.000000	   0.959580	   0.000000; % COW
	2	 0.0	 0.0	 3	   0.000000	   1.036212	   0.000000; % COW
	2	 0.0	 0.0	 3	   0.000000	   0.812749	   0.000000; % COW
	2	 0.0	 0.0	 3	   0.000000	   1.160191	   0.000000; % COW
	2	 0.0	 0.0	 3	   0.000000	   0.607646	   0.000000; % COW
	2	 0.0	 0.0	 3	   0.000000	   1.043813	   0.000000; % COW
	2	 0.0	 0.0	 3	   0.000000	   0.583193	   0.000000; % COW
	2	 0.0	 0.0	 3	   0.000000	   1.204295	   0.000000; % COW
	2	 0.0	 0.0	 3	   0.000000	   0.529207	   0.000000; % COW
	2	 0.0	 0.0	 3	   0.000000	   0.810865	   0.000000; % COW
	2	 0.0	 0.0	 3	   0.000000	   0.474352	   0.000000; % COW
	2	 0.0	 0.0	 3	   0.000000	   0.197888	   0.000000; % NUC
	2	 0.0	 0.0	 3	   0.000000	   0.173390	   0.000000; % NUC
];

%% branch data
%	fbus	tbus	r	x	b	rateA	rateB	rateC	ratio	angle	status	angmin	angmax
mpc.branch = [
	1	 7	 0.0055	 0.0334	 0.04711	 320	 320	 320	 1.0	 0.0	 1	 -30.0	 30.0;
	1	 17	 0.00059	 0.00818	 0.02064	 475	 475	 475	 1.0	 0.0	 1	 -30.0	 30.0;
	1	 21	 0.00138	 0.00908	 0.0128	 333	 333	 333	 1.0	 0.0	 1	 -30.0	 30.0;
	1	 46	 0.0075	 0.04531	 0.06412	 320	 320	 320	 1.0	 0.0	 1	 -30.0	 30.0;
	1	 71	 0.00607	 0.08107	 0.20636	 388	 388	 388	 1.0	 0.0	 1	 -30.0	 30.0;
	5	 6	 0.0	 0.0001	 0.0	 9900.0	 9900.0	 9900.0	 1.0	 0.0	 1	 -30.0	 30.0;
	5	 23	 0.1134	 0.2371	 0.0034	 57	 57	 57	 1.0	 0.0	 1	 -30.0	 30.0;
	6	 22	 0.1892	 0.4045	 0.0057	 58	 58	 58	 1.0	 0.0	 1	 -30.0	 30.0;
	7	 12	 0.0008	 0.00758	 0.0122	 396	 396	 396	 1.0	 0.0	 1	 -30.0	 30.0;
	7	 15	 0.00118	 0.00525	 0.00734	 276	 276	 276	 1.0	 0.0	 1	 -30.0	 30.0;
	11	 172	 0.0414	 0.186	 0.03803	 165	 165	 165	 1.0	 0.0	 1	 -30.0	 30.0;
	12	 17	 0.00186	 0.01775	 0.02631	 398	 398	 398	 1.0	 0.0	 1	 -30.0	 30.0;
	17	 20	 0.0015	 0.01421	 0.02098	 396	 396	 396	 1.0	 0.0	 1	 -30.0	 30.0;
	17	 76	 0.01123	 0.10655	 0.15787	 294	 294	 294	 1.0	 0.0	 1	 -30.0	 30.0;
	17	 76	 0.00673	 0.0629	 0.22871	 394	 394	 394	 1.0	 0.0	 1	 -30.0	 30.0;
	21	 25	 0.00702	 0.04602	 0.06492	 332	 332	 332	 1.0	 0.0	 1	 -30.0	 30.0;
	22	 24	 0.09229	 0.11961	 0.00156	 46	 46	 46	 1.0	 0.0	 1	 -30.0	 30.0;
	23	 24	 0.12833	 0.28719	 0.00422	 59	 59	 59	 1.0	 0.0	 1	 -30.0	 30.0;
	24	 44	 0.1	 0.15	 0.002	 49	 49	 49	 1.0	 0.0	 1	 -30.0	 30.0;
	25	 57	 0.005	 0.0328	 0.0456	 332	 332	 332	 1.0	 0.0	 1	 -30.0	 30.0;
	26	 40	 0.02416	 0.06049	 0.01107	 126	 126	 126	 1.0	 0.0	 1	 -30.0	 30.0;
	30	 35	 0.006	 0.015	 0.0	 63	 63	 63	 1.0	 0.0	 1	 -30.0	 30.0;
	31	 35	 0.0239	 0.0599	 0.0007	 63	 63	 63	 1.0	 0.0	 1	 -30.0	 30.0;
	35	 38	 0.0	 0.0001	 0.0	 9900.0	 9900.0	 9900.0	 1.0	 0.0	 1	 -30.0	 30.0;
	35	 44	 0.0615	 0.1591	 0.0024	 64	 64	 64	 1.0	 0.0	 1	 -30.0	 30.0;
	35	 54	 0.0399	 0.1001	 0.0011	 63	 63	 63	 1.0	 0.0	 1	 -30.0	 30.0;
	39	 41	 0.00023	 0.00222	 0.00329	 400	 400	 400	 1.0	 0.0	 1	 -30.0	 30.0;
	39	 48	 0.00019	 0.00178	 0.00263	 394	 394	 394	 1.0	 0.0	 1	 -30.0	 30.0;
	39	 57	 0.00187	 0.01776	 0.02631	 397	 397	 397	 1.0	 0.0	 1	 -30.0	 30.0;
	40	 47	 0.00055	 0.00324	 0.00018	 189	 189	 189	 1.0	 0.0	 1	 -30.0	 30.0;
	41	 46	 0.0054	 0.03262	 0.04616	 320	 320	 320	 1.0	 0.0	 1	 -30.0	 30.0;
	41	 57	 0.00255	 0.01541	 0.0218	 320	 320	 320	 1.0	 0.0	 1	 -30.0	 30.0;
	41	 75	 0.0009	 0.00852	 0.01259	 396	 396	 396	 1.0	 0.0	 1	 -30.0	 30.0;
	49	 55	 0.00068	 0.00191	 0.02173	 133	 133	 133	 1.0	 0.0	 1	 -30.0	 30.0;
	49	 58	 0.00677	 0.01915	 0.19623	 133	 133	 133	 1.0	 0.0	 1	 -30.0	 30.0;
	55	 56	 0.0083	 0.03772	 0.00758	 167	 167	 167	 1.0	 0.0	 1	 -30.0	 30.0;
	56	 69	 0.00352	 0.00996	 0.10204	 133	 133	 133	 1.0	 0.0	 1	 -30.0	 30.0;
	57	 71	 0.00208	 0.01308	 0.01975	 326	 326	 326	 1.0	 0.0	 1	 -30.0	 30.0;
	57	 71	 0.00208	 0.01308	 0.01975	 326	 326	 326	 1.0	 0.0	 1	 -30.0	 30.0;
	57	 76	 0.0088	 0.0534	 0.076	 320	 320	 320	 1.0	 0.0	 1	 -30.0	 30.0;
	58	 59	 0.0038	 0.0084	 0.0219	 118	 118	 118	 1.0	 0.0	 1	 -30.0	 30.0;
	58	 69	 0.0046	 0.017	 0.0033	 151	 151	 151	 1.0	 0.0	 1	 -30.0	 30.0;
	59	 82	 0.0005	 0.0023	 0.0325	 168	 168	 168	 1.0	 0.0	 1	 -30.0	 30.0;
	61	 71	 0.00041	 0.00262	 0.0046	 328	 328	 328	 1.0	 0.0	 1	 -30.0	 30.0;
	62	 71	 0.00041	 0.00262	 0.0046	 328	 328	 328	 1.0	 0.0	 1	 -30.0	 30.0;
	64	 71	 0.00041	 0.00262	 0.0046	 328	 328	 328	 1.0	 0.0	 1	 -30.0	 30.0;
	66	 71	 0.00041	 0.00262	 0.0046	 328	 328	 328	 1.0	 0.0	 1	 -30.0	 30.0;
	69	 84	 0.0032	 0.0057	 0.1054	 107	 107	 107	 1.0	 0.0	 1	 -30.0	 30.0;
	71	 75	 0.0022	 0.0212	 0.0321	 399	 399	 399	 1.0	 0.0	 1	 -30.0	 30.0;
	72	 73	 0.0011	 0.0046	 0.001	 161	 161	 161	 1.0	 0.0	 1	 -30.0	 30.0;
	72	 92	 0.00465	 0.01776	 0.00547	 154	 154	 154	 1.0	 0.0	 1	 -30.0	 30.0;
	72	 93	 0.0253	 0.101	 0.0219	 157	 157	 157	 1.0	 0.0	 1	 -30.0	 30.0;
	76	 80	 0.0007	 0.004	 0.0061	 311	 311	 311	 1.0	 0.0	 1	 -30.0	 30.0;
	76	 81	 0.0004	 0.00377	 0.00557	 395	 395	 395	 1.0	 0.0	 1	 -30.0	 30.0;
	76	 81	 0.00039	 0.0037	 0.00547	 396	 396	 396	 1.0	 0.0	 1	 -30.0	 30.0;
	77	 103	 0.0106	 0.0476	 0.00985	 166	 166	 166	 1.0	 0.0	 1	 -30.0	 30.0;
	82	 86	 0.00196	 0.00418	 0.04905	 116	 116	 116	 1.0	 0.0	 1	 -30.0	 30.0;
	88	 90	 0.00402	 0.00674	 0.10825	 104	 104	 104	 1.0	 0.0	 1	 -30.0	 30.0;
	90	 92	 0.0001	 0.00042	 0.00591	 161	 161	 161	 1.0	 0.0	 1	 -30.0	 30.0;
	93	 96	 0.00354	 0.0214	 0.00392	 192	 192	 192	 1.0	 0.0	 1	 -30.0	 30.0;
	94	 96	 0.0029	 0.01159	 0.00251	 157	 157	 157	 1.0	 0.0	 1	 -30.0	 30.0;
	96	 97	 0.00583	 0.03524	 0.00646	 192	 192	 192	 1.0	 0.0	 1	 -30.0	 30.0;
	103	 119	 0.0409	 0.1829	 0.03775	 166	 166	 166	 1.0	 0.0	 1	 -30.0	 30.0;
	109	 113	 0.0248	 0.1112	 0.0227	 166	 166	 166	 1.0	 0.0	 1	 -30.0	 30.0;
	109	 119	 0.0178	 0.08	 0.01636	 166	 166	 166	 1.0	 0.0	 1	 -30.0	 30.0;
	113	 115	 0.0429	 0.1927	 0.03945	 160	 160	 160	 1.0	 0.0	 1	 -30.0	 30.0;
	119	 123	 0.0385	 0.1727	 0.0356	 166	 166	 166	 1.0	 0.0	 1	 -30.0	 30.0;
	123	 125	 0.018	 0.0797	 0.0159	 165	 165	 165	 1.0	 0.0	 1	 -30.0	 30.0;
	125	 130	 0.0169	 0.075	 0.0153	 165	 165	 165	 1.0	 0.0	 1	 -30.0	 30.0;
	130	 132	 0.0839	 0.2156	 0.0427	 127	 127	 127	 1.0	 0.0	 1	 -30.0	 30.0;
	132	 137	 0.0435	 0.1952	 0.04	 157	 157	 157	 1.0	 0.0	 1	 -30.0	 30.0;
	133	 143	 0.35284	 0.5564	 0.005	 47	 47	 47	 1.0	 0.0	 1	 -30.0	 30.0;
	137	 176	 0.06485	 0.29293	 0.06014	 105	 105	 105	 1.0	 0.0	 1	 -30.0	 30.0;
	141	 142	 0.0	 0.0001	 0.0	 9900.0	 9900.0	 9900.0	 1.0	 0.0	 1	 -30.0	 30.0;
	155	 157	 0.01419	 0.01638	 0.10193	 87	 87	 87	 1.0	 0.0	 1	 -30.0	 30.0;
	155	 158	 0.01663	 0.07017	 0.01485	 161	 161	 161	 1.0	 0.0	 1	 -30.0	 30.0;
	155	 161	 0.0264	 0.11823	 0.0242	 166	 166	 166	 1.0	 0.0	 1	 -30.0	 30.0;
	155	 176	 0.01322	 0.04968	 0.08516	 153	 153	 153	 1.0	 0.0	 1	 -30.0	 30.0;
	159	 185	 0.30532	 0.5096	 0.003	 51	 51	 51	 1.0	 0.0	 1	 -30.0	 30.0;
	161	 166	 0.0399	 0.1791	 0.0367	 166	 166	 166	 1.0	 0.0	 1	 -30.0	 30.0;
	166	 170	 0.0	 -0.40174	 0.0	 78	 78	 78	 1.0	 0.0	 1	 -30.0	 30.0;
	170	 172	 0.0883	 0.4	 0.0838	 77	 77	 77	 1.0	 0.0	 1	 -30.0	 30.0;
	177	 188	 0.00219	 0.03499	 0.0818	 509	 509	 509	 1.0	 0.0	 1	 -30.0	 30.0;
	188	 189	 0.0	 0.0001	 0.0	 9900.0	 9900.0	 9900.0	 1.0	 0.0	 1	 -30.0	 30.0;
	1	 2	 0.00481	 0.14783	 0.0	 213	 213	 213	 1.0	 0.0	 1	 -30.0	 30.0;
	1	 3	 0.00481	 0.14783	 0.0	 213	 213	 213	 1.0	 0.0	 1	 -30.0	 30.0;
	1	 4	 0.00292	 0.113	 0.0	 279	 279	 279	 1.0	 0.0	 1	 -30.0	 30.0;
	5	 2	 0.01616	 0.101	 0.0	 308	 308	 308	 1.0	 0.0	 1	 -30.0	 30.0;
	6	 3	 0.01616	 0.101	 0.0	 308	 308	 308	 1.0	 0.0	 1	 -30.0	 30.0;
	7	 8	 0.00373	 0.129	 0.0	 244	 244	 244	 1.0	 0.0	 1	 -30.0	 30.0;
	7	 9	 0.00373	 0.129	 0.0	 244	 244	 244	 1.0	 0.0	 1	 -30.0	 30.0;
	7	 10	 0.00373	 0.129	 0.0	 244	 244	 244	 1.0	 0.0	 1	 -30.0	 30.0;
	7	 11	 0.002	 0.1081	 0.0	 292	 292	 292	 1.0	 0.0	 1	 -30.0	 30.0;
	12	 13	 0.00444	 0.15	 0.0	 210	 210	 210	 1.0	 0.0	 1	 -30.0	 30.0;
	12	 14	 0.00444	 0.15	 0.0	 210	 210	 210	 1.0	 0.0	 1	 -30.0	 30.0;
	15	 16	 0.0064	 0.1285	 0.0	 245	 245	 245	 1.0	 0.0	 1	 -30.0	 30.0;
	17	 18	 0.00637	 0.12825	 0.0	 245	 245	 245	 1.0	 0.0	 1	 -30.0	 30.0;
	17	 19	 0.00637	 0.12825	 0.0	 245	 245	 245	 1.0	 0.0	 1	 -30.0	 30.0;
	25	 26	 0.00258	 0.126	 0.0	 250	 250	 250	 1.0	 0.0	 1	 -30.0	 30.0;
	26	 27	 0.00823	 0.1094	 0.0	 287	 287	 287	 1.0	 0.0	 1	 -30.0	 30.0;
	26	 28	 0.0081	 0.1098	 0.0	 286	 286	 286	 1.0	 0.0	 1	 -30.0	 30.0;
	26	 29	 0.00519	 0.099	 0.0	 318	 318	 318	 1.0	 0.0	 1	 -30.0	 30.0;
	26	 30	 0.00583	 0.1167	 0.0	 270	 270	 270	 1.0	 0.0	 1	 -30.0	 30.0;
	31	 32	 0.0035	 0.119	 0.0	 265	 265	 265	 1.0	 0.0	 1	 -30.0	 30.0;
	31	 33	 0.0035	 0.119	 0.0	 265	 265	 265	 1.0	 0.0	 1	 -30.0	 30.0;
	31	 34	 0.00049	 0.11797	 0.0	 267	 267	 267	 1.0	 0.0	 1	 -30.0	 30.0;
	35	 36	 0.00425	 0.0649	 0.0	 485	 485	 485	 1.0	 0.0	 1	 -30.0	 30.0;
	35	 37	 0.16	 1.6	 0.0	 19	 19	 19	 1.0	 0.0	 1	 -30.0	 30.0;
	39	 40	 0.0011	 0.0525	 0.0	 601	 601	 601	 1.0	 0.0	 1	 -30.0	 30.0;
	41	 42	 0.0064	 0.1285	 0.0	 245	 245	 245	 1.0	 0.0	 1	 -30.0	 30.0;
	41	 43	 0.0064	 0.1285	 0.0	 245	 245	 245	 1.0	 0.0	 1	 -30.0	 30.0;
	44	 45	 0.05	 0.1	 0.0	 282	 282	 282	 1.0	 0.0	 1	 -30.0	 30.0;
	49	 50	 0.00522	 0.07661	 0.0	 411	 411	 411	 1.0	 0.0	 1	 -30.0	 30.0;
	49	 51	 0.00522	 0.07661	 0.0	 411	 411	 411	 1.0	 0.0	 1	 -30.0	 30.0;
	49	 52	 0.00522	 0.07661	 0.0	 411	 411	 411	 1.0	 0.0	 1	 -30.0	 30.0;
	49	 53	 0.00522	 0.07661	 0.0	 411	 411	 411	 1.0	 0.0	 1	 -30.0	 30.0;
	57	 58	 0.0011	 0.0427	 0.0	 739	 739	 739	 1.0	 0.0	 1	 -30.0	 30.0;
	61	 60	 0.002	 0.0515	 0.0	 612	 612	 612	 1.0	 0.0	 1	 -30.0	 30.0;
	62	 63	 0.00256	 0.12	 0.0	 263	 263	 263	 1.0	 0.0	 1	 -30.0	 30.0;
	64	 65	 0.00256	 0.12	 0.0	 263	 263	 263	 1.0	 0.0	 1	 -30.0	 30.0;
	66	 67	 0.00256	 0.12	 0.0	 263	 263	 263	 1.0	 0.0	 1	 -30.0	 30.0;
	66	 68	 0.00256	 0.12	 0.0	 263	 263	 263	 1.0	 0.0	 1	 -30.0	 30.0;
	69	 70	 0.0027	 0.06	 0.0	 525	 525	 525	 1.0	 0.0	 1	 -30.0	 30.0;
	71	 72	 0.0011	 0.06	 0.0	 526	 526	 526	 1.0	 0.0	 1	 -30.0	 30.0;
	73	 74	 0.01	 0.1	 0.0	 314	 314	 314	 1.0	 0.0	 1	 -30.0	 30.0;
	76	 77	 0.0018	 0.0608	 0.0	 519	 519	 519	 1.0	 0.0	 1	 -30.0	 30.0;
	77	 78	 0.00378	 0.0806	 0.0	 391	 391	 391	 1.0	 0.0	 1	 -30.0	 30.0;
	78	 79	 0.015	 0.27	 0.0	 116	 116	 116	 1.0	 0.0	 1	 -30.0	 30.0;
	82	 83	 0.0015	 0.0031	 0.0	 9172	 9172	 9172	 1.0	 0.0	 1	 -30.0	 30.0;
	85	 84	 0.003	 0.06	 0.0	 525	 525	 525	 1.0	 0.0	 1	 -30.0	 30.0;
	87	 86	 0.003	 0.06	 0.0	 525	 525	 525	 1.0	 0.0	 1	 -30.0	 30.0;
	89	 88	 0.0036	 0.072	 0.0	 438	 438	 438	 1.0	 0.0	 1	 -30.0	 30.0;
	91	 90	 0.0036	 0.072	 0.0	 438	 438	 438	 1.0	 0.0	 1	 -30.0	 30.0;
	94	 95	 0.00615	 0.12	 0.0	 262	 262	 262	 1.0	 0.0	 1	 -30.0	 30.0;
	94	 102	 0.00615	 0.12	 0.0	 262	 262	 262	 1.0	 0.0	 1	 -30.0	 30.0;
	97	 98	 0.00282	 0.09414	 0.0	 335	 335	 335	 1.0	 0.0	 1	 -30.0	 30.0;
	97	 99	 0.00282	 0.09414	 0.0	 335	 335	 335	 1.0	 0.0	 1	 -30.0	 30.0;
	97	 100	 0.0042	 0.14004	 0.0	 225	 225	 225	 1.0	 0.0	 1	 -30.0	 30.0;
	97	 101	 0.0042	 0.14004	 0.0	 225	 225	 225	 1.0	 0.0	 1	 -30.0	 30.0;
	103	 104	 0.00347	 0.115	 0.0	 274	 274	 274	 1.0	 0.0	 1	 -30.0	 30.0;
	104	 105	 0.006	 0.06	 0.0	 523	 523	 523	 1.0	 0.0	 1	 -30.0	 30.0;
	104	 107	 0.0044	 0.072	 0.0	 437	 437	 437	 1.0	 0.0	 1	 -30.0	 30.0;
	105	 106	 0.0045	 0.045	 0.0	 698	 698	 698	 1.0	 0.0	 1	 -30.0	 30.0;
	105	 108	 0.0044	 0.072	 0.0	 437	 437	 437	 1.0	 0.0	 1	 -30.0	 30.0;
	109	 110	 0.00635	 0.0987	 0.0	 319	 319	 319	 1.0	 0.0	 1	 -30.0	 30.0;
	110	 111	 0.0045	 0.045	 0.0	 698	 698	 698	 1.0	 0.0	 1	 -30.0	 30.0;
	110	 112	 0.0044	 0.072	 0.0	 437	 437	 437	 1.0	 0.0	 1	 -30.0	 30.0;
	113	 114	 0.00477	 0.0917	 0.0	 343	 343	 343	 1.0	 0.0	 1	 -30.0	 30.0;
	115	 116	 0.00447	 0.1218	 0.0	 259	 259	 259	 1.0	 0.0	 1	 -30.0	 30.0;
	116	 118	 0.00536	 0.13302	 0.0	 237	 237	 237	 1.0	 0.0	 1	 -30.0	 30.0;
	117	 118	 0.00431	 0.07931	 0.0	 397	 397	 397	 1.0	 0.0	 1	 -30.0	 30.0;
	119	 120	 0.00552	 0.0987	 0.0	 319	 319	 319	 1.0	 0.0	 1	 -30.0	 30.0;
	120	 121	 0.004	 0.04	 0.0	 785	 785	 785	 1.0	 0.0	 1	 -30.0	 30.0;
	120	 122	 0.0044	 0.072	 0.0	 437	 437	 437	 1.0	 0.0	 1	 -30.0	 30.0;
	123	 124	 0.00535	 0.12914	 0.0	 244	 244	 244	 1.0	 0.0	 1	 -30.0	 30.0;
	125	 126	 0.00297	 0.1051	 0.0	 300	 300	 300	 1.0	 0.0	 1	 -30.0	 30.0;
	125	 127	 0.00297	 0.1051	 0.0	 300	 300	 300	 1.0	 0.0	 1	 -30.0	 30.0;
	126	 128	 0.0006	 0.06	 0.0	 61	 61	 61	 1.0	 0.0	 1	 -30.0	 30.0;
	127	 129	 0.0006	 0.06	 0.0	 61	 61	 61	 1.0	 0.0	 1	 -30.0	 30.0;
	130	 131	 0.00499	 0.1432	 0.0	 220	 220	 220	 1.0	 0.0	 1	 -30.0	 30.0;
	132	 133	 0.00492	 0.1179	 0.0	 267	 267	 267	 1.0	 0.0	 1	 -30.0	 30.0;
	133	 134	 0.008	 0.08	 0.0	 392	 392	 392	 1.0	 0.0	 1	 -30.0	 30.0;
	134	 135	 0.006	 0.06	 0.0	 523	 523	 523	 1.0	 0.0	 1	 -30.0	 30.0;
	134	 136	 0.00011	 0.0018	 0.0	 25	 25	 25	 1.0	 0.0	 1	 -30.0	 30.0;
	137	 138	 0.0042	 0.14004	 0.0	 225	 225	 225	 1.0	 0.0	 1	 -30.0	 30.0;
	137	 139	 0.0042	 0.14044	 0.0	 224	 224	 224	 1.0	 0.0	 1	 -30.0	 30.0;
	138	 140	 0.0044	 0.044	 0.0	 714	 714	 714	 1.0	 0.0	 1	 -30.0	 30.0;
	139	 140	 0.0044	 0.044	 0.0	 714	 714	 714	 1.0	 0.0	 1	 -30.0	 30.0;
	139	 141	 0.00629	 0.06169	 0.0	 20	 20	 20	 1.0	 0.0	 1	 -30.0	 30.0;
	143	 144	 0.00694	 0.13939	 0.0	 226	 226	 226	 1.0	 0.0	 1	 -30.0	 30.0;
	143	 145	 0.0042	 0.0843	 0.0	 374	 374	 374	 1.0	 0.0	 1	 -30.0	 30.0;
	143	 146	 0.01002	 0.10017	 0.0	 313	 313	 313	 1.0	 0.0	 1	 -30.0	 30.0;
	143	 147	 0.012	 0.12	 0.0	 261	 261	 261	 1.0	 0.0	 1	 -30.0	 30.0;
	144	 148	 0.00573	 0.0573	 0.0	 548	 548	 548	 1.0	 0.0	 1	 -30.0	 30.0;
	146	 152	 0.001	 0.01	 0.0	 12	 12	 12	 1.0	 0.0	 1	 -30.0	 30.0;
	147	 149	 0.00573	 0.0573	 0.0	 548	 548	 548	 1.0	 0.0	 1	 -30.0	 30.0;
	148	 152	 0.00573	 0.0573	 0.0	 548	 548	 548	 1.0	 0.0	 1	 -30.0	 30.0;
	149	 153	 0.96	 9.55	 0.0	 3	 3	 3	 1.0	 0.0	 1	 -30.0	 30.0;
	150	 153	 2.667	 26.67	 0.0	 1	 1	 1	 1.0	 0.0	 1	 -30.0	 30.0;
	151	 153	 2.667	 26.67	 0.0	 1	 1	 1	 1.0	 0.0	 1	 -30.0	 30.0;
	152	 153	 0.00288	 0.02865	 0.0	 12	 12	 12	 1.0	 0.0	 1	 -30.0	 30.0;
	152	 154	 2.667	 26.67	 0.0	 1	 1	 1	 1.0	 0.0	 1	 -30.0	 30.0;
	157	 156	 0.00563	 0.12099	 0.0	 260	 260	 260	 1.0	 0.0	 1	 -30.0	 30.0;
	158	 159	 0.00347	 0.115	 0.0	 274	 274	 274	 1.0	 0.0	 1	 -30.0	 30.0;
	159	 160	 0.00011	 0.0018	 0.0	 9900.0	 9900.0	 9900.0	 1.0	 0.0	 1	 -30.0	 30.0;
	161	 163	 0.006	 0.1078	 0.0	 292	 292	 292	 1.0	 0.0	 1	 -30.0	 30.0;
	163	 162	 0.006	 0.06	 0.0	 523	 523	 523	 1.0	 0.0	 1	 -30.0	 30.0;
	162	 164	 0.0044	 0.044	 0.0	 714	 714	 714	 1.0	 0.0	 1	 -30.0	 30.0;
	163	 165	 0.0044	 0.072	 0.0	 437	 437	 437	 1.0	 0.0	 1	 -30.0	 30.0;
	166	 167	 0.00454	 0.1077	 0.0	 293	 293	 293	 1.0	 0.0	 1	 -30.0	 30.0;
	167	 168	 0.0044	 0.044	 0.0	 714	 714	 714	 1.0	 0.0	 1	 -30.0	 30.0;
	167	 169	 0.0044	 0.072	 0.0	 25	 25	 25	 1.0	 0.0	 1	 -30.0	 30.0;
	167	 171	 0.0063	 0.0693	 0.0	 453	 453	 453	 1.0	 0.0	 1	 -30.0	 30.0;
	172	 173	 0.00508	 0.07896	 0.0	 399	 399	 399	 1.0	 0.0	 1	 -30.0	 30.0;
	173	 174	 0.0045	 0.045	 0.0	 698	 698	 698	 1.0	 0.0	 1	 -30.0	 30.0;
	173	 175	 0.0044	 0.072	 0.0	 437	 437	 437	 1.0	 0.0	 1	 -30.0	 30.0;
	177	 176	 0.00363	 0.12	 0.0	 263	 263	 263	 1.0	 0.0	 1	 -30.0	 30.0;
	188	 178	 0.005	 0.12	 0.0	 262	 262	 262	 1.0	 0.0	 1	 -30.0	 30.0;
	188	 179	 0.00501	 0.12	 0.0	 262	 262	 262	 1.0	 0.0	 1	 -30.0	 30.0;
	188	 180	 0.00501	 0.12	 0.0	 262	 262	 262	 1.0	 0.0	 1	 -30.0	 30.0;
...
];

% INFO    : === Translation Options ===
% INFO    : Phase Angle Bound:           30.0 (deg.)
% INFO    : Line Capacity Model:         stat
% INFO    : Gen Active Capacity Model:   stat
% INFO    : Gen Reactive Capacity Model: am50ag
% INFO    : Gen Active Cost Model:       stat
% INFO    : 
% INFO    : === Generator Classification Notes ===
% INFO    : NUC    8   -    19.39
% INFO    : COW    26  -    75.80
% INFO    : NG     1   -     4.81
% INFO    : 
% INFO    : === Generator Active Capacity Stat Model Notes ===
% INFO    : Gen at bus 10 - COW	: Pg=69.3, Pmax=2000.0 -> Pmax=228   samples: 1
% INFO    : Gen at bus 2 - COW	: Pg=90.0, Pmax=2000.0 -> Pmax=115   samples: 1
% WARNING : Failed to find a generator capacity within (90.0-450.0) after 100 samples, using percent increase model
% INFO    : Gen at bus 3 - NUC	: Pg=90.0, Pmax=2000.0 -> Pmax=95   samples: 100
% INFO    : Gen at bus 4 - COW	: Pg=45.0, Pmax=2000.0 -> Pmax=128   samples: 3
% WARNING : Failed to find a generator capacity within (29.01-145.05) after 100 samples, using percent increase model
% INFO    : Gen at bus 8 - NUC	: Pg=29.01, Pmax=2000.0 -> Pmax=30   samples: 100
% INFO    : Gen at bus 9 - COW	: Pg=29.01, Pmax=2000.0 -> Pmax=32   samples: 3
% INFO    : Gen at bus 13 - COW	: Pg=60.0, Pmax=2000.0 -> Pmax=236   samples: 3
% INFO    : Gen at bus 14 - COW	: Pg=60.0, Pmax=2000.0 -> Pmax=164   samples: 1
% INFO    : Gen at bus 16 - COW	: Pg=45.0, Pmax=2000.0 -> Pmax=164   samples: 7
% INFO    : Gen at bus 18 - NG	: Pg=60.0, Pmax=2000.0 -> Pmax=151   samples: 5
% INFO    : Gen at bus 19 - COW	: Pg=60.0, Pmax=2000.0 -> Pmax=124   samples: 3
% INFO    : Gen at bus 27 - COW	: Pg=13.0, Pmax=2000.0 -> Pmax=46   samples: 11
% INFO    : Gen at bus 28 - COW	: Pg=13.0, Pmax=2000.0 -> Pmax=63   samples: 1
% WARNING : Failed to find a generator capacity within (13.0-65.0) after 100 samples, using percent increase model
% INFO    : Gen at bus 29 - NUC	: Pg=13.0, Pmax=2000.0 -> Pmax=13   samples: 100
% INFO    : Gen at bus 32 - COW	: Pg=11.0, Pmax=2000.0 -> Pmax=11   samples: 3
% INFO    : Gen at bus 33 - COW	: Pg=11.0, Pmax=2000.0 -> Pmax=20   samples: 7
% INFO    : Gen at bus 36 - COW	: Pg=14.6, Pmax=2000.0 -> Pmax=52   samples: 19
% WARNING : Failed to find a generator capacity within (40.0-200.0) after 100 samples, using percent increase model
% INFO    : Gen at bus 42 - NUC	: Pg=40.0, Pmax=2000.0 -> Pmax=42   samples: 100
% INFO    : Gen at bus 43 - COW	: Pg=40.0, Pmax=2000.0 -> Pmax=166   samples: 1
% INFO    : Gen at bus 50 - COW	: Pg=30.0, Pmax=2000.0 -> Pmax=72   samples: 5
% INFO    : Gen at bus 51 - COW	: Pg=30.0, Pmax=2000.0 -> Pmax=88   samples: 4
% INFO    : Gen at bus 52 - COW	: Pg=30.0, Pmax=2000.0 -> Pmax=112   samples: 2
% INFO    : Gen at bus 53 - COW	: Pg=30.0, Pmax=2000.0 -> Pmax=111   samples: 1
% INFO    : Gen at bus 98 - COW	: Pg=50.0, Pmax=2000.0 -> Pmax=121   samples: 3
% INFO    : Gen at bus 99 - COW	: Pg=50.0, Pmax=2000.0 -> Pmax=65   samples: 2
% INFO    : Gen at bus 102 - COW	: Pg=60.0, Pmax=2000.0 -> Pmax=218   samples: 2
% INFO    : Gen at bus 104 - COW	: Pg=4.0, Pmax=2000.0 -> Pmax=11   samples: 1
% WARNING : Failed to find a generator capacity within (6.0-30.0) after 100 samples, using percent increase model
% INFO    : Gen at bus 117 - NUC	: Pg=6.0, Pmax=2000.0 -> Pmax=6   samples: 100
% WARNING : Failed to find a generator capacity within (38.0-190.0) after 100 samples, using percent increase model
% INFO    : Gen at bus 126 - NUC	: Pg=38.0, Pmax=2000.0 -> Pmax=40   samples: 100
% INFO    : Gen at bus 127 - COW	: Pg=38.0, Pmax=2000.0 -> Pmax=101   samples: 11
% INFO    : Gen at bus 138 - COW	: Pg=30.0, Pmax=2000.0 -> Pmax=58   samples: 1
% INFO    : Gen at bus 139 - COW	: Pg=30.0, Pmax=2000.0 -> Pmax=95   samples: 3
% INFO    : Gen at bus 142 - COW	: Pg=3.0, Pmax=2000.0 -> Pmax=7   samples: 24
% WARNING : Failed to find a generator capacity within (20.0-100.0) after 100 samples, using percent increase model
% INFO    : Gen at bus 144 - NUC	: Pg=20.0, Pmax=2000.0 -> Pmax=21   samples: 100
% WARNING : Failed to find a generator capacity within (6.0-30.0) after 100 samples, using percent increase model
% INFO    : Gen at bus 186 - NUC	: Pg=6.0, Pmax=2000.0 -> Pmax=6   samples: 100
% INFO    : 
% INFO    : === Generator Reactive Capacity Atmost Max 50 Percent Active Model Notes ===
% INFO    : Gen at bus 8 - NUC	: Pmax 30.0, Qmin -20.0, Qmax 38.0 -> Qmin -15.0, Qmax 15.0
% INFO    : Gen at bus 9 - COW	: Pmax 32.0, Qmin -20.0, Qmax 38.0 -> Qmin -16.0, Qmax 16.0
% INFO    : Gen at bus 29 - NUC	: Pmax 13.0, Qmin -5.0, Qmax 12.6 -> Qmin -5.0, Qmax 7.0
% INFO    : Gen at bus 32 - COW	: Pmax 11.0, Qmin -5.0, Qmax 9.9 -> Qmin -5.0, Qmax 6.0
% INFO    : Gen at bus 42 - NUC	: Pmax 42.0, Qmin -20.0, Qmax 22.0 -> Qmin -20.0, Qmax 21.0
% INFO    : Gen at bus 126 - NUC	: Pmax 40.0, Qmin -12.0, Qmax 22.0 -> Qmin -12.0, Qmax 20.0
% INFO    : Gen at bus 144 - NUC	: Pmax 21.0, Qmin 0.0, Qmax 16.8 -> Qmin 0.0, Qmax 11.0
% INFO    : Gen at bus 186 - NUC	: Pmax 6.0, Qmin 0.0, Qmax 6.0 -> Qmin 0.0, Qmax 3.0
% INFO    : 
% INFO    : === Generator Active Cost Stat Model Notes ===
% INFO    : Updated Generator Cost: COW - 0.0 1.0 0.1 -> 0 0.950261141821 0
% INFO    : Updated Generator Cost: COW - 0.0 1.0 0.1 -> 0 0.410910229915 0
% INFO    : Updated Generator Cost: NUC - 0.0 1.0 0.1 -> 0 0.193324445728 0
% INFO    : Updated Generator Cost: COW - 0.0 1.0 0.1 -> 0 1.08271007076 0
% INFO    : Updated Generator Cost: NUC - 0.0 1.0 0.1 -> 0 0.187727194072 0
% INFO    : Updated Generator Cost: COW - 0.0 1.0 0.1 -> 0 0.685695147054 0
% INFO    : Updated Generator Cost: COW - 0.0 1.0 0.1 -> 0 0.908042980071 0
% INFO    : Updated Generator Cost: COW - 0.0 1.0 0.1 -> 0 0.975514928723 0
% INFO    : Updated Generator Cost: COW - 0.0 1.0 0.1 -> 0 1.03172193875 0
% INFO    : Updated Generator Cost: NG - 0.0 1.0 0.1 -> 0 1.07876789046 0
% INFO    : Updated Generator Cost: COW - 0.0 1.0 0.1 -> 0 0.363147341762 0
% INFO    : Updated Generator Cost: COW - 0.0 1.0 0.1 -> 0 1.0339867707 0
% INFO    : Updated Generator Cost: COW - 0.0 1.0 0.1 -> 0 0.994267351591 0
% INFO    : Updated Generator Cost: NUC - 0.0 1.0 0.1 -> 0 0.200298524672 0
% INFO    : Updated Generator Cost: COW - 0.0 1.0 0.1 -> 0 0.625655970302 0
% INFO    : Updated Generator Cost: COW - 0.0 1.0 0.1 -> 0 0.947924714232 0
% INFO    : Updated Generator Cost: COW - 0.0 1.0 0.1 -> 0 0.523605464516 0
% INFO    : Updated Generator Cost: NUC - 0.0 1.0 0.1 -> 0 0.194501645662 0
% INFO    : Updated Generator Cost: COW - 0.0 1.0 0.1 -> 0 1.05007997601 0
% INFO    : Updated Generator Cost: COW - 0.0 1.0 0.1 -> 0 0.959579643236 0
% INFO    : Updated Generator Cost: COW - 0.0 1.0 0.1 -> 0 1.03621210621 0
% INFO    : Updated Generator Cost: COW - 0.0 1.0 0.1 -> 0 0.812748934658 0
% INFO    : Updated Generator Cost: COW - 0.0 1.0 0.1 -> 0 1.16019126126 0
% INFO    : Updated Generator Cost: COW - 0.0 1.0 0.1 -> 0 0.60764649801 0
% INFO    : Updated Generator Cost: COW - 0.0 1.0 0.1 -> 0 1.0438129645 0
% INFO    : Updated Generator Cost: COW - 0.0 1.0 0.1 -> 0 0.583193289945 0
% INFO    : Updated Generator Cost: COW - 0.0 1.0 0.1 -> 0 1.20429465449 0
% INFO    : Updated Generator Cost: NUC - 0.0 1.0 0.1 -> 0 0.207683187907 0
% INFO    : Updated Generator Cost: NUC - 0.0 1.0 0.1 -> 0 0.255752838723 0
% INFO    : Updated Generator Cost: COW - 0.0 1.0 0.1 -> 0 0.655193832351 0
% INFO    : Updated Generator Cost: COW - 0.0 1.0 0.1 -> 0 0.529207110833 0
% INFO    : Updated Generator Cost: COW - 0.0 1.0 0.1 -> 0 0.810864513637 0
% INFO    : Updated Generator Cost: COW - 0.0 1.0 0.1 -> 0 0.474351602965 0
% INFO    : Updated Generator Cost: NUC - 0.0 1.0 0.1 -> 0 0.19788847207 0
% INFO    : Updated Generator Cost: NUC - 0.0 1.0 0.1 -> 0 0.173390186385 0
% INFO    : 
% INFO    : === Line Capacity Stat Model Notes ===
% INFO    : Updated Thermal Rating: on line 1-7 : Rate A, Rate B, Rate C , 9900.0, 9900.0, 9900.0 -> 320
% INFO    : Updated Thermal Rating: on line 1-17 : Rate A, Rate B, Rate C , 9900.0, 9900.0, 9900.0 -> 475
% INFO    : Updated Thermal Rating: on line 1-21 : Rate A, Rate B, Rate C , 9900.0, 9900.0, 9900.0 -> 333
% INFO    : Updated Thermal Rating: on line 1-46 : Rate A, Rate B, Rate C , 9900.0, 9900.0, 9900.0 -> 320
% WARNING : Updated Thermal Rating Stat Model was larger than UB Model: on 1-71 : 467 , 388
% INFO    : Updated Thermal Rating: on line 1-71 : Rate A, Rate B, Rate C , 9900.0, 9900.0, 9900.0 -> 388
% WARNING : Missing data for branch flow stat model on line 5-6 using max current model : from_basekv=66.0 to_basekv=66.0 r=0.0 x=0.0001
% INFO    : Updated Thermal Rating: on line 5-23 : Rate A, Rate B, Rate C , 9900.0, 9900.0, 9900.0 -> 57
% INFO    : Updated Thermal Rating: on line 6-22 : Rate A, Rate B, Rate C , 9900.0, 9900.0, 9900.0 -> 58
% INFO    : Updated Thermal Rating: on line 7-12 : Rate A, Rate B, Rate C , 9900.0, 9900.0, 9900.0 -> 396
% INFO    : Updated Thermal Rating: on line 7-15 : Rate A, Rate B, Rate C , 9900.0, 9900.0, 9900.0 -> 276
% WARNING : Updated Thermal Rating Stat Model was larger than UB Model: on 11-172 : 166 , 165
% INFO    : Updated Thermal Rating: on line 11-172 : Rate A, Rate B, Rate C , 9900.0, 9900.0, 9900.0 -> 165
% INFO    : Updated Thermal Rating: on line 12-17 : Rate A, Rate B, Rate C , 9900.0, 9900.0, 9900.0 -> 398
% INFO    : Updated Thermal Rating: on line 17-20 : Rate A, Rate B, Rate C , 9900.0, 9900.0, 9900.0 -> 396
% WARNING : Updated Thermal Rating Stat Model was larger than UB Model: on 17-76 : 396 , 294
% INFO    : Updated Thermal Rating: on line 17-76 : Rate A, Rate B, Rate C , 9900.0, 9900.0, 9900.0 -> 294
% INFO    : Updated Thermal Rating: on line 17-76 : Rate A, Rate B, Rate C , 9900.0, 9900.0, 9900.0 -> 394
% INFO    : Updated Thermal Rating: on line 21-25 : Rate A, Rate B, Rate C , 9900.0, 9900.0, 9900.0 -> 332
% INFO    : Updated Thermal Rating: on line 22-24 : Rate A, Rate B, Rate C , 9900.0, 9900.0, 9900.0 -> 46
% INFO    : Updated Thermal Rating: on line 23-24 : Rate A, Rate B, Rate C , 9900.0, 9900.0, 9900.0 -> 59
% INFO    : Updated Thermal Rating: on line 24-44 : Rate A, Rate B, Rate C , 9900.0, 9900.0, 9900.0 -> 49
% INFO    : Updated Thermal Rating: on line 25-57 : Rate A, Rate B, Rate C , 9900.0, 9900.0, 9900.0 -> 332
% INFO    : Updated Thermal Rating: on line 26-40 : Rate A, Rate B, Rate C , 9900.0, 9900.0, 9900.0 -> 126
% INFO    : Updated Thermal Rating: on line 30-35 : Rate A, Rate B, Rate C , 9900.0, 9900.0, 9900.0 -> 63
% INFO    : Updated Thermal Rating: on line 31-35 : Rate A, Rate B, Rate C , 9900.0, 9900.0, 9900.0 -> 63
% WARNING : Missing data for branch flow stat model on line 35-38 using max current model : from_basekv=66.0 to_basekv=66.0 r=0.0 x=0.0001
% INFO    : Updated Thermal Rating: on line 35-44 : Rate A, Rate B, Rate C , 9900.0, 9900.0, 9900.0 -> 64
% INFO    : Updated Thermal Rating: on line 35-54 : Rate A, Rate B, Rate C , 9900.0, 9900.0, 9900.0 -> 63
% INFO    : Updated Thermal Rating: on line 39-41 : Rate A, Rate B, Rate C , 9900.0, 9900.0, 9900.0 -> 400
% INFO    : Updated Thermal Rating: on line 39-48 : Rate A, Rate B, Rate C , 9900.0, 9900.0, 9900.0 -> 394
% INFO    : Updated Thermal Rating: on line 39-57 : Rate A, Rate B, Rate C , 9900.0, 9900.0, 9900.0 -> 397
% INFO    : Updated Thermal Rating: on line 40-47 : Rate A, Rate B, Rate C , 9900.0, 9900.0, 9900.0 -> 189
% INFO    : Updated Thermal Rating: on line 41-46 : Rate A, Rate B, Rate C , 9900.0, 9900.0, 9900.0 -> 320
% INFO    : Updated Thermal Rating: on line 41-57 : Rate A, Rate B, Rate C , 9900.0, 9900.0, 9900.0 -> 320
% INFO    : Updated Thermal Rating: on line 41-75 : Rate A, Rate B, Rate C , 9900.0, 9900.0, 9900.0 -> 396
% INFO    : Updated Thermal Rating: on line 49-55 : Rate A, Rate B, Rate C , 9900.0, 9900.0, 9900.0 -> 133
% INFO    : Updated Thermal Rating: on line 49-58 : Rate A, Rate B, Rate C , 9900.0, 9900.0, 9900.0 -> 133
% INFO    : Updated Thermal Rating: on line 55-56 : Rate A, Rate B, Rate C , 9900.0, 9900.0, 9900.0 -> 167
% INFO    : Updated Thermal Rating: on line 56-69 : Rate A, Rate B, Rate C , 9900.0, 9900.0, 9900.0 -> 133
% INFO    : Updated Thermal Rating: on line 57-71 : Rate A, Rate B, Rate C , 9900.0, 9900.0, 9900.0 -> 326
% INFO    : Updated Thermal Rating: on line 57-71 : Rate A, Rate B, Rate C , 9900.0, 9900.0, 9900.0 -> 326
% INFO    : Updated Thermal Rating: on line 57-76 : Rate A, Rate B, Rate C , 9900.0, 9900.0, 9900.0 -> 320
% INFO    : Updated Thermal Rating: on line 58-59 : Rate A, Rate B, Rate C , 9900.0, 9900.0, 9900.0 -> 118
% INFO    : Updated Thermal Rating: on line 58-69 : Rate A, Rate B, Rate C , 9900.0, 9900.0, 9900.0 -> 151
% INFO    : Updated Thermal Rating: on line 59-82 : Rate A, Rate B, Rate C , 9900.0, 9900.0, 9900.0 -> 168
% INFO    : Updated Thermal Rating: on line 61-71 : Rate A, Rate B, Rate C , 9900.0, 9900.0, 9900.0 -> 328
% INFO    : Updated Thermal Rating: on line 62-71 : Rate A, Rate B, Rate C , 9900.0, 9900.0, 9900.0 -> 328
% INFO    : Updated Thermal Rating: on line 64-71 : Rate A, Rate B, Rate C , 9900.0, 9900.0, 9900.0 -> 328
% INFO    : Updated Thermal Rating: on line 66-71 : Rate A, Rate B, Rate C , 9900.0, 9900.0, 9900.0 -> 328
% INFO    : Updated Thermal Rating: on line 69-84 : Rate A, Rate B, Rate C , 9900.0, 9900.0, 9900.0 -> 107
% INFO    : Updated Thermal Rating: on line 71-75 : Rate A, Rate B, Rate C , 9900.0, 9900.0, 9900.0 -> 399
% INFO    : Updated Thermal Rating: on line 72-73 : Rate A, Rate B, Rate C , 9900.0, 9900.0, 9900.0 -> 161
% INFO    : Updated Thermal Rating: on line 72-92 : Rate A, Rate B, Rate C , 9900.0, 9900.0, 9900.0 -> 154
% INFO    : Updated Thermal Rating: on line 72-93 : Rate A, Rate B, Rate C , 9900.0, 9900.0, 9900.0 -> 157
% INFO    : Updated Thermal Rating: on line 76-80 : Rate A, Rate B, Rate C , 9900.0, 9900.0, 9900.0 -> 311
% INFO    : Updated Thermal Rating: on line 76-81 : Rate A, Rate B, Rate C , 9900.0, 9900.0, 9900.0 -> 395
% INFO    : Updated Thermal Rating: on line 76-81 : Rate A, Rate B, Rate C , 9900.0, 9900.0, 9900.0 -> 396
% INFO    : Updated Thermal Rating: on line 77-103 : Rate A, Rate B, Rate C , 9900.0, 9900.0, 9900.0 -> 166
% INFO    : Updated Thermal Rating: on line 82-86 : Rate A, Rate B, Rate C , 9900.0, 9900.0, 9900.0 -> 116
% INFO    : Updated Thermal Rating: on line 88-90 : Rate A, Rate B, Rate C , 9900.0, 9900.0, 9900.0 -> 104
% INFO    : Updated Thermal Rating: on line 90-92 : Rate A, Rate B, Rate C , 9900.0, 9900.0, 9900.0 -> 161
% INFO    : Updated Thermal Rating: on line 93-96 : Rate A, Rate B, Rate C , 9900.0, 9900.0, 9900.0 -> 192
% INFO    : Updated Thermal Rating: on line 94-96 : Rate A, Rate B, Rate C , 9900.0, 9900.0, 9900.0 -> 157
% INFO    : Updated Thermal Rating: on line 96-97 : Rate A, Rate B, Rate C , 9900.0, 9900.0, 9900.0 -> 192
% INFO    : Updated Thermal Rating: on line 103-119 : Rate A, Rate B, Rate C , 9900.0, 9900.0, 9900.0 -> 166
% INFO    : Updated Thermal Rating: on line 109-113 : Rate A, Rate B, Rate C , 9900.0, 9900.0, 9900.0 -> 166
% INFO    : Updated Thermal Rating: on line 109-119 : Rate A, Rate B, Rate C , 9900.0, 9900.0, 9900.0 -> 166
% WARNING : Updated Thermal Rating Stat Model was larger than UB Model: on 113-115 : 166 , 160
% INFO    : Updated Thermal Rating: on line 113-115 : Rate A, Rate B, Rate C , 9900.0, 9900.0, 9900.0 -> 160
% INFO    : Updated Thermal Rating: on line 119-123 : Rate A, Rate B, Rate C , 9900.0, 9900.0, 9900.0 -> 166
% INFO    : Updated Thermal Rating: on line 123-125 : Rate A, Rate B, Rate C , 9900.0, 9900.0, 9900.0 -> 165
% INFO    : Updated Thermal Rating: on line 125-130 : Rate A, Rate B, Rate C , 9900.0, 9900.0, 9900.0 -> 165
% INFO    : Updated Thermal Rating: on line 130-132 : Rate A, Rate B, Rate C , 9900.0, 9900.0, 9900.0 -> 127
% WARNING : Updated Thermal Rating Stat Model was larger than UB Model: on 132-137 : 166 , 157
% INFO    : Updated Thermal Rating: on line 132-137 : Rate A, Rate B, Rate C , 9900.0, 9900.0, 9900.0 -> 157
% WARNING : Updated Thermal Rating Stat Model was larger than UB Model: on 133-143 : 50 , 47
% INFO    : Updated Thermal Rating: on line 133-143 : Rate A, Rate B, Rate C , 9900.0, 9900.0, 9900.0 -> 47
% WARNING : Updated Thermal Rating Stat Model was larger than UB Model: on 137-176 : 167 , 105
% INFO    : Updated Thermal Rating: on line 137-176 : Rate A, Rate B, Rate C , 9900.0, 9900.0, 9900.0 -> 105
% WARNING : Missing data for branch flow stat model on line 141-142 using max current model : from_basekv=11.0 to_basekv=11.0 r=0.0 x=0.0001
% INFO    : Updated Thermal Rating: on line 155-157 : Rate A, Rate B, Rate C , 9900.0, 9900.0, 9900.0 -> 87
% INFO    : Updated Thermal Rating: on line 155-158 : Rate A, Rate B, Rate C , 9900.0, 9900.0, 9900.0 -> 161
% INFO    : Updated Thermal Rating: on line 155-161 : Rate A, Rate B, Rate C , 9900.0, 9900.0, 9900.0 -> 166
% INFO    : Updated Thermal Rating: on line 155-176 : Rate A, Rate B, Rate C , 9900.0, 9900.0, 9900.0 -> 153
% INFO    : Updated Thermal Rating: on line 159-185 : Rate A, Rate B, Rate C , 9900.0, 9900.0, 9900.0 -> 51
% INFO    : Updated Thermal Rating: on line 161-166 : Rate A, Rate B, Rate C , 9900.0, 9900.0, 9900.0 -> 166
% WARNING : Missing data for branch flow stat model on line 166-170 using max current model : from_basekv=132.0 to_basekv=132.0 r=0.0 x=-0.40174
% INFO    : Updated Thermal Rating: on line 166-170 : Rate A, Rate B, Rate C , 9900.0, 9900.0, 9900.0 -> 78
% WARNING : Updated Thermal Rating Stat Model was larger than UB Model: on 170-172 : 167 , 77
% INFO    : Updated Thermal Rating: on line 170-172 : Rate A, Rate B, Rate C , 9900.0, 9900.0, 9900.0 -> 77
% INFO    : Updated Thermal Rating: on line 177-188 : Rate A, Rate B, Rate C , 9900.0, 9900.0, 9900.0 -> 509
% WARNING : Missing data for branch flow stat model on line 188-189 using max current model : from_basekv=220.0 to_basekv=220.0 r=0.0 x=0.0001
% WARNING : Different basekv values on line 1-2, branch flow stat model using max current model : from_basekv=220.0 to_basekv=13.8 
% INFO    : Updated Thermal Rating: on line 1-2 : Rate A, Rate B, Rate C , 9900.0, 9900.0, 9900.0 -> 213
% WARNING : Different basekv values on line 1-3, branch flow stat model using max current model : from_basekv=220.0 to_basekv=13.8 
% INFO    : Updated Thermal Rating: on line 1-3 : Rate A, Rate B, Rate C , 9900.0, 9900.0, 9900.0 -> 213
% WARNING : Different basekv values on line 1-4, branch flow stat model using max current model : from_basekv=220.0 to_basekv=13.8 
% INFO    : Updated Thermal Rating: on line 1-4 : Rate A, Rate B, Rate C , 9900.0, 9900.0, 9900.0 -> 279
% WARNING : Different basekv values on line 5-2, branch flow stat model using max current model : from_basekv=66.0 to_basekv=13.8 
% INFO    : Updated Thermal Rating: on line 5-2 : Rate A, Rate B, Rate C , 9900.0, 9900.0, 9900.0 -> 308
% WARNING : Different basekv values on line 6-3, branch flow stat model using max current model : from_basekv=66.0 to_basekv=13.8 
% INFO    : Updated Thermal Rating: on line 6-3 : Rate A, Rate B, Rate C , 9900.0, 9900.0, 9900.0 -> 308
% WARNING : Different basekv values on line 7-8, branch flow stat model using max current model : from_basekv=220.0 to_basekv=10.5 
% INFO    : Updated Thermal Rating: on line 7-8 : Rate A, Rate B, Rate C , 9900.0, 9900.0, 9900.0 -> 244
% WARNING : Different basekv values on line 7-9, branch flow stat model using max current model : from_basekv=220.0 to_basekv=10.5 
% INFO    : Updated Thermal Rating: on line 7-9 : Rate A, Rate B, Rate C , 9900.0, 9900.0, 9900.0 -> 244
% WARNING : Different basekv values on line 7-10, branch flow stat model using max current model : from_basekv=220.0 to_basekv=10.5 
% INFO    : Updated Thermal Rating: on line 7-10 : Rate A, Rate B, Rate C , 9900.0, 9900.0, 9900.0 -> 244
% WARNING : Different basekv values on line 7-11, branch flow stat model using max current model : from_basekv=220.0 to_basekv=132.0 
% INFO    : Updated Thermal Rating: on line 7-11 : Rate A, Rate B, Rate C , 9900.0, 9900.0, 9900.0 -> 292
% WARNING : Different basekv values on line 12-13, branch flow stat model using max current model : from_basekv=220.0 to_basekv=13.8 
% INFO    : Updated Thermal Rating: on line 12-13 : Rate A, Rate B, Rate C , 9900.0, 9900.0, 9900.0 -> 210
% WARNING : Different basekv values on line 12-14, branch flow stat model using max current model : from_basekv=220.0 to_basekv=13.8 
% INFO    : Updated Thermal Rating: on line 12-14 : Rate A, Rate B, Rate C , 9900.0, 9900.0, 9900.0 -> 210
% WARNING : Different basekv values on line 15-16, branch flow stat model using max current model : from_basekv=220.0 to_basekv=11.0 
% INFO    : Updated Thermal Rating: on line 15-16 : Rate A, Rate B, Rate C , 9900.0, 9900.0, 9900.0 -> 245
% WARNING : Different basekv values on line 17-18, branch flow stat model using max current model : from_basekv=220.0 to_basekv=11.0 
% INFO    : Updated Thermal Rating: on line 17-18 : Rate A, Rate B, Rate C , 9900.0, 9900.0, 9900.0 -> 245
% WARNING : Different basekv values on line 17-19, branch flow stat model using max current model : from_basekv=220.0 to_basekv=11.0 
% INFO    : Updated Thermal Rating: on line 17-19 : Rate A, Rate B, Rate C , 9900.0, 9900.0, 9900.0 -> 245
% WARNING : Different basekv values on line 25-26, branch flow stat model using max current model : from_basekv=220.0 to_basekv=132.0 
% INFO    : Updated Thermal Rating: on line 25-26 : Rate A, Rate B, Rate C , 9900.0, 9900.0, 9900.0 -> 250
% WARNING : Different basekv values on line 26-27, branch flow stat model using max current model : from_basekv=132.0 to_basekv=10.5 
% INFO    : Updated Thermal Rating: on line 26-27 : Rate A, Rate B, Rate C , 9900.0, 9900.0, 9900.0 -> 287
% WARNING : Different basekv values on line 26-28, branch flow stat model using max current model : from_basekv=132.0 to_basekv=10.5 
% INFO    : Updated Thermal Rating: on line 26-28 : Rate A, Rate B, Rate C , 9900.0, 9900.0, 9900.0 -> 286
% WARNING : Different basekv values on line 26-29, branch flow stat model using max current model : from_basekv=132.0 to_basekv=10.5 
% INFO    : Updated Thermal Rating: on line 26-29 : Rate A, Rate B, Rate C , 9900.0, 9900.0, 9900.0 -> 318
% WARNING : Different basekv values on line 26-30, branch flow stat model using max current model : from_basekv=132.0 to_basekv=66.0 
% INFO    : Updated Thermal Rating: on line 26-30 : Rate A, Rate B, Rate C , 9900.0, 9900.0, 9900.0 -> 270
% WARNING : Different basekv values on line 31-32, branch flow stat model using max current model : from_basekv=66.0 to_basekv=6.6 
% INFO    : Updated Thermal Rating: on line 31-32 : Rate A, Rate B, Rate C , 9900.0, 9900.0, 9900.0 -> 265
% WARNING : Different basekv values on line 31-33, branch flow stat model using max current model : from_basekv=66.0 to_basekv=6.6 
% INFO    : Updated Thermal Rating: on line 31-33 : Rate A, Rate B, Rate C , 9900.0, 9900.0, 9900.0 -> 265
% WARNING : Different basekv values on line 31-34, branch flow stat model using max current model : from_basekv=66.0 to_basekv=6.6 
% INFO    : Updated Thermal Rating: on line 31-34 : Rate A, Rate B, Rate C , 9900.0, 9900.0, 9900.0 -> 267
% WARNING : Different basekv values on line 35-36, branch flow stat model using max current model : from_basekv=66.0 to_basekv=6.6 
% INFO    : Updated Thermal Rating: on line 35-36 : Rate A, Rate B, Rate C , 9900.0, 9900.0, 9900.0 -> 485
% WARNING : Different basekv values on line 35-37, branch flow stat model using max current model : from_basekv=66.0 to_basekv=11.0 
...